3|35|Public
30|$|Gnanasundar and Elango (2000) {{carried out}} the {{groundwater}} flow modeling of a marginal aquifer near Chennai city, India using MODFLOW. The model was measured under steady and transient conditions. The structural distribution of groundwater head and <b>well</b> <b>hydrograph</b> was differentiated from the historic data. They achieved that rapid urbanization would lead to further lowering of the water table at few locations along the Northern coast of the aquifer system. They also indicated that their model is delicate even for 5 % reduction in recharge (Gnanasundar and Elango 2011). Gogu et al. (2001) performed groundwater modeling of Belgium for the Walloon region by using the GIS-based hydrogeological database. Different hydrogeological characteristics of five river pool were chosen in the database. A “loose-coupling” device was estimated between the groundwater numerical model interface Groundwater Modeling System (GMS) and the structural-data base plan. Stored data in the database of hydrogeological data can be used easily for structural queries and following time within different groundwater numerical models (Wojda et al. 2006).|$|E
30|$|In Peninsular India, all {{the hard}} rock true hydrographs show a {{predominant}} annual cycle {{in response to the}} wet and dry season. With the onset of monsoon, throughout the monsoon the curve form rising limb and once the monsoon retrieve the curve starts forming recession limb, which continue until the next monsoon (annual cycle). Successive annual cycles join together to form long-term hydrograph. With the full knowledge of fluctuation of groundwater level, the hydraulic conductivity/filtration conditions can be calculated by analyzing recession curve of <b>well</b> <b>hydrograph</b> (Ferdowsian et al. 2001; Gailuma and Vitola 2009; Posavec et al. 2006; Sujono et al. 2004). The rapid decline in recession curve corresponds to better filtration conditions (Gailuma and Vitola 2009). Therefore, it can be stated comparatively that the U shape curves correspond to better hydraulic conductivity (k) than the V shape, whereas the S shape curves represents the lowest hydraulic conductivity of the aquifer. So, based on hydraulic conductivity (k) aquifers can be classified as U > V > S type curve. In the Peninsular hard rock V type is more abundant over U type, while S type is the least abundant type since it largely corresponds to aquicludes.|$|E
40|$|Field {{experiments}} were conducted from 1992 to 1995 to estimate ground water recharge rates at two sites located within a 2. 7 -hectare agricultural field. The field {{lies in a}} sand plain setting in central Minnesota and is cropped continuously in field corn. The sites are located at a topographically high (upland) site and a topographically low (lowland) site {{in an effort to}} quantify the effects of depression focusing of recharge. Three site-specific methods were used to estimate recharge rates: <b>well</b> <b>hydrograph</b> analysis, chlorofluorocarbon age dating, and an unsaturated zone water balance. All three recharge methods indicated that recharge rates at the lowland site (annual average of all methods of 29 cm) exceeded those at the upland site (annual average of 18 cm). On an annual basis, estimates by the individual methods ranged from 12 to 44 percent of precipitation at the upland site and from 21 to 83 percent at the lowland site. The difference in recharge rates between the sites is primarily attributed to depression focusing of surface water run-on at the lowland site. However, two other factors were also important: the presence of thin lamellae at the upland site, and coarser textured soils below a depth of 1. 5 m at the lowland site...|$|E
40|$|A {{numerical}} {{model for the}} NCMA aquifer complex is presented. The objective {{of the study is}} to develop a numerical groundwater model for the NCMA aquifer system to enhance the understanding of subsurface groundwater flow. Infiltration, streamflow, pumping, and return flows are implemented to characterize the aquifer complex over time. The {{numerical model}} is calibrated to municipal and monitoring well data, average monthly water balances, and hydraulic contours. Transient aquifer inflows and outflows are assessed in {{the results of the study}} and are compared to balance terms from previous studies. The 2007 Todd Engineers Study subsurface inflows and outflows generate <b>well</b> <b>hydrographs</b> that have greater heads than observed data. Calibration to <b>well</b> <b>hydrographs</b> generated increased subsurface outflow values and decreased subsurface inflow values. It is possible that approximately 250 AFY is leaving aquifer storage...|$|R
40|$|Riparian {{zones in}} {{semi-arid}} regions often exhibit {{high rates of}} evapotranspiration (ET) in spite of low soil moisture content due to vegetation that is able to withdraw water from shallow aquifers. This work better defines the relationship between ET and the saturated zone by comparing the observed water table drawdown to analytically modeled drawdown in fully penetrating wells of an unconfined aquifer in response to daily ET flux. ET at the Boise Hydrogeophysical Research Site or BHRS (a riparian zone in a temperate, semi arid environment) is calculated following the approach of Batra et al. (2006) but uses site (or near site) measurements for air temperature and net radiation while relying on Landsat 5 data for quantification of vegetation. The resulting ET calculations represent a data set consisting of high resolution (30 m x 30 m) ET flux values obtained from minimal site measurements. Water table levels in the shallow, unconfined aquifer were monitored over {{the summer and fall}} of 2009 to record the timing and magnitude of daily fluctuations in four wells with different vegetation densities and distances from the nearby Boise River at the site. ET derived from the radiation-driven model of Batra et al. (2006) compares favorably with groundwater ET contribution rates calculated from <b>well</b> <b>hydrographs</b> (White, 1932), which further supports the finding of negligible water contribution coming from the unsaturated zone in shallow riparian aquifers in semi-arid regions (Shah et al., 2007). Using an analytical solution to ET induced drawdown (Malama 2 ̆ 6 Johnson, 2010) for a semi-infinite (or river bounded) domain, daily drawdown is modeled in response to daily ET flux applied at the water table. Close agreement between observed and modeled drawdown supports the idea that ET can be estimated from <b>well</b> <b>hydrographs</b> in a wellcharacterized aquifer and conversely, if ET behavior is characterized, aquifer parameters like hydraulic conductivity and specific storage can be estimated from <b>well</b> <b>hydrographs...</b>|$|R
40|$|Riparian {{zones in}} {{semiarid}} regions often exhibit {{high rates of}} evapotranspiration (ET) in spite of low-soil moisture content due {{to the presence of}} phreatophytic vegetation that is able to withdraw water from shallow aquifers. This work seeks to better define the relationship between ET, the saturated zone and the river boundary by comparing observed water table drawdown records to analytically modeled drawdown in fully penetrating wells of an unconfined aquifer in response to daily ET flux. ET at the Boise Hydrogeophysical Research Site (BHRS), a riparian zone in a temperate, semiarid environment, is calculated using a radiation-based method to provide ET values at four different wells with different vegetation densities. Analytically modeled drawdown response to ET forcing shows that drawdown magnitude increases with increasing distance from the river edge even as the surficial ET forcing remains constant. This behavior is also observed in <b>well</b> <b>hydrographs</b> and shows the buffering effect that flow from the river has on drawdown in fully penetrating riparian wells in highly permeable, unconfined aquifers. Relative contributions of river water to aquifer storage are calculated for ET-induced diurnal fluctuations of the water table at increasing distances from the river boundary. Failure to account for these spatial differences in drawdown related to the river source may explain some errors associated with estimating ET from <b>well</b> <b>hydrographs</b> alone...|$|R
30|$|Rainfall is the {{principle}} source of recharge, supplemented by influent seepage from the irrigation canal network. <b>Well,</b> <b>hydrographs</b> show that recharge from rainfall occur very fast and {{keep pace with the}} increasing or decreasing rainfall in this area. Fluctuation of water table is generally constant in the eastern region in comparison to the western region. The tube wells in the east (100  m deep on an average) are deeper in comparison to {{the western part of the}} district (Mondal et al. 2014). Several blocks in Birbhum district are affected with fluoride occurrence in groundwater (PHED 2007; Mondal et al. 2014; Thapa et al. 2016).|$|R
40|$|Hydrograph {{analysis}} {{techniques have}} been <b>well</b> developed for <b>hydrographs</b> obtained from streams and springs, where data are cast {{in terms of}} total discharge. The data obtained from <b>well</b> <b>hydrographs</b> provide water level versus time; hence, a method of hydrograph analysis is required for situations in which only water level data are available. It is hypothesized here that three segments on a recession curve from wells in a karst aquifer represent drainage from three types of storage: conduit (C), fracture (F), and matrix (M). <b>Hydrographs</b> from several <b>wells</b> in a karst aquifer at the U. S. Department of Energy Oak Ridge Y- 12 Plant are used to estimate the specific yields (S{sub y}) associated with each portion of the aquifer (C, F, M), as well as continuum transmissivities (T). Data from three short injection tests at one well indicate continuum T at this well bore is {approximately} 5 m{sup 2 }/d, and tests at numerous other wells in the aquifer yield results between 1 and 7 M{sup 2 }/d. The T estimated with <b>well</b> <b>hydrographs</b> from two storm events indicates a T of 9. 8 m{sup 2 } 2 /d. Well developed conduit systems in which water levels in wells show a flashy response typically show S{sub y} values of 1 {times} 10 {sup - 4 }, 1 {times} 10 {sup - 3 }, and 3 {times} 10 {sup - 3 }, for C, F, and M. Less well developed conduit areas show more nearly equal S{sub y} values (8. 6 {times} 10 {sup - 4 }, 1. 3 {times} 10 {sup - 3 }, 3 {times} 10 {sup - 3 }). Areas with no evidence {{for the presence of}} conduits have only one, or in some cases two, slopes on the recession curve. In these cases, water level responses are slow. Recession curves with a single slope represent drainage from only the lower T matrix. Those with two slopes have an additional, more rapid response, segment on the recession curve, which represents drainage from the higher T, lower S{sub y}, fractures in the system...|$|R
40|$|Field {{studies were}} {{conducted}} during the winter 1965 - 1966 at an instrumented research site near Tucson, Arizona, to characterize changes in the subsurface water regime of the stratified sediments at the site during influent seepage in the Santa Cruz River. At the peak of recharge from the principal runoff event of the winter, observation well data accounted for 33 percent of the observed total change in the subsurface water content. The remaining 67 percent, observed by means of moisture logs in access tubes, was contained in two near-saturated mounds in the intermediate vadose zone. Slow drainage of water from these mounds into the semi-confined phreatic zone apparently reduced the rates of recession of observation <b>well</b> <b>hydrographs.</b> Water content changes in the intermediate vadose zone and related long-term drainage should be accounted for during water balance studies and aquifer testing in the Tucson Basin...|$|R
25|$|A {{record of}} {{hydraulic}} head through {{time at a}} <b>well</b> is a <b>hydrograph</b> or, the changes in hydraulic head recorded during the pumping of a well in a test are called drawdown.|$|R
40|$|Infiltration {{losses and}} {{recharge}} to groundwater at {{a section of}} Rillito Creek at Tucson, Arizona, were analyzed using data from two flood events in December 1959 and January 1960. Assuming infiltration losses are a function of stream discharge and using empirical equations developed by the U. S. Geological Survey, infiltration loss at the section {{was estimated to be}} 2. 24 x 10 ⁶ m³/km. Estimates of recharge were obtained by two indirect methods: (1) A deconvolution integral in which the impulse response function is derived from the one-dimensional diffusion equation and the output functions are based on <b>well</b> <b>hydrographs.</b> The recharge values ranged between 1. 41 x 10 ⁶ m³/km and 2. 07 x 10 ⁶ m³/km depending on values of aquifer diffusivity obtained from the literature (al = 6, 000 m²/day and (α₂ = 3, 000 m²/day). (2) A groundwater mound method gave a recharge value ranging between 0. 86 x 10 ⁶ m³/km and 1. 29 x 10 ⁶ m³/km depending on the effective porosity values (0. 10, 0. 15). Over all, an average of 70 percent of transmission losses reached and recharged the groundwater reservoir. However, this figure should not be generalized because recharge conditions are favorable in the Rillito Creek area...|$|R
40|$|The {{application}} of remote sensing techniques was studied for detecting areas with high water tables in irrigated agricultural lands. Aerial {{data were collected}} by the LANDSAT- 1 satellite and aircraft over the Kansas/Bostwick Irrigation District in Republic and Jewell Counties, Kansas. LANDSAT- 1 data for May 12 and August 10, 1973, and aircraft flights (midday and predawn) on August 10 and 11, 1973, and June 25 and 26, 1974, were obtained. Surface and water table contour maps and active observation <b>well</b> <b>hydrographs</b> {{were obtained from the}} Bureau of Reclamation for use in the analysis. Results of the study reveal that LANDSAT- 1 data (May MSS band 6 and August MSS band 7) correlate significantly (0. 01 level) with water table depth for 144 active observation wells located throughout the Kansas/Bostwick Irrigation District. However, a map of water table depths of less than 1. 83 meters prepared from the LANDSAT- 1 data did not compare favorably with a map of seeped lands of less than 1. 22 m (4 feet) to the water table. Field evaluation of the map is necessary for a complete analysis. Analysis of three fields on a within or single-field basis for the 1973 LANDSAT- 1 data also showed significant correlation results...|$|R
40|$|The {{alluvial}} plain of Sarvestan bears the sole source of potable water in Sarvestan county, Fars Province, Iran. In recent years, due to extended heavy pumping, the groundwater storage {{has been reduced}} continuously. The UNGWM (United Nation Ground Water Model) is {{used to evaluate the}} hydraulic characteristics of the Sarvestan aquifer and its future response to various regimes of recharge and discharge. The model is a finite difference solution of differential equations for the two-dimensional, isotropic, nonhomogeneous transient flow of water in a porous medium. The aquifer parameters are determined through a combination of visual and rational comparison of simulated and observed groundwater contour maps while adjusting the aquifer boundary inflow-outflow rates at the aquifer recovery period. To validate the parameter values several simulated isopotential maps are compared with observed ones by optimizing the infiltrated rainfall rate into the aquifer. Using the established parameters values, boundary inflow-outflow rates and infiltrated rainfall rate, the annual <b>well</b> <b>hydrographs</b> were simulated. A very good match was found between simulated and observed hydrographs in terms of trend, fluctuations and values. The response of the aquifer to some dictated regimes of discharge and recharge was predicted. The critical zones where pumpage must be prevented are specified and the location of production wells to be drilled in the future is also defined. The UNGWM is validated as a valuable tool for groundwater resource assessment...|$|R
40|$|Traditional {{analysis}} of aquifer tests uses the observed <b>hydrograph</b> at one <b>well</b> caused by pumping at another well for estimating transmissivity and storage coefficient of an aquifer. The analysis relies on Theis' or Jacob's approximate solution, which assumes aquifer homogeneity. Aquifers are inherently heterogeneous at different scales. If the observation well taps into a low permeability zone while the pumping well {{is located in}} a high permeable zone, the resulting situation contradicts the homogeneity assumption embedded in the traditional analysis. As a result, a practical but important question we ask: What do we derive from the traditional analysis? Using numerical experiments in synthetic aquifers, we answer this question. Results of the experiments indicate that the effective transmissivity, Teff, and storage coefficient, Seff, values vary with time, as well as the principal directions of the transmissivity, but both values approach their geometric means of the aquifer at large times. Analysis of the estimated transmissivity (T) and storage coefficient (S) using <b>well</b> <b>hydrographs</b> from a single observation well shows that at early times, both the estimated T and S values vary with time. At late times, both estimates approach local averages near the observation well. The T value approaches but does not equal Teff, representing an average value over a broad area {{in the vicinity of the}} observation well while the S value converges to the value dominated by the storage coefficient near the observation wells (i. e., its average area is much smaller than that of the t value) ...|$|R
30|$|The aquifer {{response}} to recharge–discharge phenomenon of hard rock aquifers {{has been investigated}} by analyzing over 250 <b>well</b> <b>hydrographs,</b> collected from eight States of Peninsular India. The true hydrographs are based on continuous (six hourly) time series data recorded {{with the help of}} digital automatic water level recorders fitted in purpose-built piezometers. Due to the high heterogeneity of hard rock aquifers each well/piezometer produces a hydrograph that is unique and does not match with <b>hydrographs</b> of other <b>wells.</b> However, the successive annual curves of the <b>hydrograph</b> of a <b>well</b> remain nearly similar in shape though the magnitude of fluctuation varies based on the quantum of recharge–discharge and its pattern. This clearly reflects that the shape of the hydrograph is controlled by aquifer characteristic and its response and does not entirely depend on recharge–discharge quantum and pattern. The combination of rising and recession limbs produces different crest and trough shapes. Similarity in crest and trough shape represents similarity in aquifer characteristics. As found during this research shapes of the crests and troughs of the true hydrographs can form a basis for devising a genetic classification of the aquifers. Three crest types namely ‘point’, ‘rounded’ and ‘flat top’ crest and three trough types viz. V shape, U shape and S shape have been identified in hard rocks of Peninsular India. The V type curve indicates quick dissipation; U type indicates initial quick adjustment and then slow dissemination whereas the S type curves are indicative of poor response of the aquifer. The U shape indicates relatively better sustained diffusivity of the aquifers. Confined and unconfined aquifers can be differentiated based on the apparent line thickness. Thin line denotes unconfined and thick line denotes confined aquifer. Intermittent apparent thickness of line corresponds to semi-confined aquifer. Fluctuation produced by pumping of well can be segregated based on the fluctuation pattern.|$|R
40|$|Abstract: The {{monitoring}} of groundwater levels {{is important for}} the management of groundwater resources. Within the United Kingdom a selection of observation boreholes are monitored for periodic assessment of the groundwater resources. The measurement of groundwater levels is undertaken principally by the water companies, the National Rivers Authority (NRA) for England and Wales, the River Purification Boards (RPB) for Scotland and the Department of the Environment (DOE) for Northern Ireland. Weekly and monthly data are supplied to the British Geological Survey (BGS) and these data are entered into an ORACLE database where they are assimulated with historical records. Additionally, paper copies are archived. Data usage is facilitated by a number of computer retrievals including <b>well</b> <b>hydrographs</b> in graphic form. Access to the groundwater level information is made available to the public at a small operational cost. A number of publications are produced giving a review on groundwater, including an assessment ofrecharge to major aquifers and also a number of hydrographs are illustrated from the key boreholes. The database has proved to be an invaluable tool in predicting environmental change, such asdroughts and rising groundwater levels. Groundwater has been an important source of water supply for many centuries and now constitutes about 35 % of the supply of England and Wales. The reliability of groundwater sup-plies and the contribution of groundwater base-flow to river flows and the aquatic environment was thrown into sharp focus during the 1988 - 1992 drought. The drought severely affected the English lowlands and by the summer of I 992 groundwater storage throughout England and Wales was at its lowest his century (Marsh et al. 1994). The maintenance of a national groundwater level archive is a central government responsi-bility. Since 1982 the archive and the associated publications have been maintained and prepared by the Institute of Hydrology and the British Geological Survey (BGS) at Wallingford o...|$|R
40|$|The paper treats on {{hydrological}} distributed model adaptation for a catchment {{with significant}} contribution of wetland. The WetSpa model {{was applied to}} analyzing the effects of topography, soil type, and land use cover on the runoff characteristics for upper Biebrza catchment. The derivation of parameter maps {{and analysis of the}} daily runoff as reaction of the catchment on rainfall was performed. The semi-automated calibration of the model was executed using PEST module. Then, the assessment of that crucial processes was done by calculating errors of mathematical models performance as <b>well</b> as <b>hydrograph</b> comparison. Error values, have shown that the model efficiency was estimated to be good for high flows, but unsatisfactory for low flows. This initial modeling approach gives possibility to ask question about limitation and needs of wetland catchment for rainfall-runoff modeling. status: publishe...|$|R
30|$|Recharge {{has been}} defined as “the entry into the {{saturated}} zone of water made available at the water-table surface, together with the associated flow away from the water table within the saturated zone” (Freeze and Cherry 1979). The manner in which infiltrating water is transmitted through the system controls system response to recharge. If the rate of recharge were constant and equal to the rate of drainage away from the water table, water levels would not change. For unconfined aquifers, a time lag occurs during which the pressure change in the land surface is propagated through the unsaturated zone to the water table. Air must move through the unsaturated zone to transmit a pressure change. Therefore, an imbalance exists between the pressure on the water in the well and the water in the aquifer until the pressure front arrives at the water table. This imbalance produces a change in the observed water level in the well. Weeks (1979) and Rojstaczer (1988) present in-depth analyses of this phenomenon. The length of the time lag increases with increasing depth to the water table and with decreasing vertical air diffusivity of the unsaturated zone sediments. The barometric efficiency of an unconfined aquifer is not constant, because these two factors can change over time. Techniques for identifying and removing the effects of atmospheric-pressure changes from observed water levels are described in Weeks (1979) and Rasmussen and Crawford (1997). Pressure transducers are often used to monitor water levels; these devices can be affected by atmospheric pressure changes. Non-vented or absolute, transducer readings may reflect atmospheric-pressure changes and could give the false impression that water-level fluctuations are much greater in magnitude than they are in reality. However, all the above-discussed deviations are not significant {{in the context of the}} present paper. <b>Well</b> <b>hydrographs</b> have been classified earlier based on its segment slope and are used to compute recharge, specific storage and time lag (Raj 2004). The shape of crest and trough and therefore the shape of the annual cycle is the product of aquifer character, recharge and discharge quantum and its pattern and have been utilized in this study as a tool to arrive in for genetic classification of hard rock aquifer (see the supplementary sheets- 1 & 2).|$|R
40|$|A tomographic survey {{provides}} different coverages {{and perspectives}} on subsurface heterogeneity [...] incompletely overlapping {{information about the}} subsurface. Fusion of these pieces of information expands and enhances the capability of a conventional survey, provides cross-validation, and constrains inherently ill-posed field-scale inverse problems. In this study, we explore {{the possibility of using}} river stage variation for basin-scale subsurface tomographic surveys. Basin-scale tomography requires energy sources of great strengths; spatially and temporally varying natural stimuli are ideal energy sources for this purpose. Specifically, we use numerical models to simulate groundwater level changes in response to temporal and spatial variations of river stage in a hypothetical groundwater basin. We then exploit the relation between temporal and spatial variations of <b>well</b> <b>hydrographs</b> and river stage to image the heterogeneous characteristics of the basin. Next, we apply the hydraulic tomography testing technique and analysis algorithm to synthetic fractured media. The application aims to explore the potential utility of the technique and the algorithm for characterizing fracture zone distribution and their connectivity. Results of this investigation show that using hydraulic tomography with a limited number of wells can map satisfactorily the fracture zone distribution and the general pattern of its connectivity although estimated hydraulic property fields are smooth. As the number of wells and monitoring ports increases, the fracture zone distribution and connectivity becomes more vivid and the estimated hydraulic properties approach the true values. Further we develop a new parameter identification method that allows for simultaneous inclusion of all observed hydrographs from hydraulic tomography to map aquifer heterogeneity. A procedure is then recommended to diagnose and denoise observed hydrographs. Subsequently, we introduce methods that exploit these processed hydrographs for estimating effective parameters, boundary conditions, and statistical spatial structures of heterogeneity, which are the required inputs for the new hydraulic tomography analysis method. This new method and the data processing procedure are tested in a synthetic aquifer and subsequently applied to a sand box experiment. The estimated parameter fields for the sand box experiment are validated by predicting the head distribution induced by an independent pumping test, which was not used in the hydraulic tomography analysis...|$|R