10000|10000|Public
5|$|In 2010, a {{sequencing}} of the honey bee genome provided {{a possible explanation}} for <b>the</b> <b>sensitivity</b> of bees to pesticides. Its genome is deficient {{in the number of}} genes encoding detoxification enzymes, including cytochrome P450 monooxygenases (P450s), glutathione-S-transferases, and carboxylesterases.|$|E
5|$|No {{preparation}} is normally necessary for this examination, {{but if a}} complementary study of abdominal veins is also required, the patient {{will be asked to}} fast for 12 hours beforehand. <b>The</b> <b>sensitivity</b> and specificity measurements are around 90%.|$|E
5|$|The highest notes {{can have}} a shrill, {{piercing}} quality and {{can be difficult to}} tune accurately. Different instruments often play differently in this respect due to <b>the</b> <b>sensitivity</b> of the bore and reed measurements. Using alternate fingerings and adjusting the embouchure help correct the pitch of these notes.|$|E
40|$|In {{this paper}} we study <b>the</b> <b>sensitivities</b> of {{electron}} dose calculations {{with respect to}} the stopping power and the transport coefficients. We focus on the application to radiotherapy simulations. We use a Fokker-Planck approximation to the Boltzmann transport equation. Equations for <b>the</b> <b>sensitivities</b> are derived by the adjoint method. The Fokker-Planck equation and its adjoint are solved numerically in slab geometry using the spherical harmonics expansion ($P_N$) and an HLL finite volume method. Our method is verified by comparison to finite difference approximations of <b>the</b> <b>sensitivities.</b> Finally, we present numerical results of <b>the</b> <b>sensitivities</b> for <b>the</b> normalized average dose deposition depth {{with respect to the}} stopping power and transport coefficients, demonstrating <b>the</b> increasing relative <b>sensitivities</b> as beam energy decreases...|$|R
40|$|A {{modified}} MODFLOW {{code was}} developed to calculate <b>the</b> analytical <b>sensitivities</b> of both <b>the</b> field parameters and the operational parameters using the automatic differentiation system ADIFOR. <b>The</b> analytical <b>sensitivities</b> were then used as input parameters for PEST to calculate estimates of the uncertainties. In addition, the manuscript provides comparison between <b>the</b> analytical <b>sensitivities</b> and numerical estimates of <b>the</b> <b>sensitivities</b> as calculated by using PSET. Analytical calculations of <b>the</b> <b>sensitivities</b> {{are known to be}} more accurate than numerical estimates, (usually) takes less time to compute, and the results of analytical computations are independent of numerical assumptions such as the magnitude of the perturbation. Furthermore, using analytical sensitivities yields more accurate uncertainties than using the numerical estimates of <b>the</b> <b>sensitivities.</b> <b>The</b> paper also demonstrates <b>the</b> use of <b>sensitivity</b> analysis with respect to operation decision parameters such as magnitude of pumping rates from wells for optimal management of water resources...|$|R
40|$|Abstract. In {{this paper}} we study <b>the</b> <b>sensitivities</b> of {{electron}} dose calculations {{with respect to}} the stopping power and the transport coefficients. We focus on the application to radiotherapy simu-lations. We use a Fokker-Planck approximation to the Boltzmann transport equation. Equations for <b>the</b> <b>sensitivities</b> are derived by the adjoint method. The Fokker-Planck equation and its adjoint are solved numerically in slab geometry using the spherical harmonics expansion (PN) and an HLL finite volume method. Our method is verified by comparison to finite difference approximations of <b>the</b> <b>sensitivities.</b> Finally, we present numerical results of <b>the</b> <b>sensitivities</b> for <b>the</b> normalized average dose deposition depth {{with respect to the}} stopping power and transport coefficients, demonstrating <b>the</b> increasing relative <b>sensitivities</b> as beam energy decreases. 1...|$|R
5|$|As {{pointed out}} by Paul Krugman, the Brander–Spencer model, due to <b>the</b> <b>sensitivity</b> of the results to its assumptions, does not {{establish}} a generally applicable policy prescription in favor of government subsidies. Rather, it provides an example for when such intervention may be justifiable and points to some conditions which may favor it.|$|E
5|$|Hormones {{can act as}} immunomodulators, {{altering}} <b>the</b> <b>sensitivity</b> of {{the immune}} system. For example, female sex hormones are known immunostimulators of both adaptive and innate immune responses. Some autoimmune diseases such as lupus erythematosus strike women preferentially, and their onset often coincides with puberty. By contrast, male sex hormones such as testosterone seem to be immunosuppressive. Other hormones appear to regulate the immune system as well, most notably prolactin, growth hormone and vitamin D.|$|E
5|$|No {{single test}} has {{adequate}} {{sensitivity and specificity}} to diagnose pelvic inflammatory disease. A large multisite U.S. study found that cervical motion tenderness as a minimum clinical criterion increases <b>the</b> <b>sensitivity</b> of the CDC diagnostic criteria from 83 percent to 95 percent. However, even the modified 2002 CDC criteria do not identify women with subclinical disease.|$|E
40|$|The {{robustness}} {{of state}} feedback {{solutions to the}} problem of partial pole placement obtained by a new projection procedure is examined. The projection procedure gives a reduced-order pole assignment problem. It is shown that <b>the</b> <b>sensitivities</b> of <b>the</b> assigned poles in the complete closed-loop system are bounded in terms of <b>the</b> <b>sensitivities</b> of <b>the</b> assigned reduced-order poles, and <b>the</b> <b>sensitivities</b> of <b>the</b> unaltered poles are bounded in terms of <b>the</b> <b>sensitivities</b> of <b>the</b> corresponding open-loop poles. If the assigned poles are well-separated from the unaltered poles, these bounds are expected to be tight. The projection procedure is described in [3], and techniques for finding robust (or insensitive) solutions to the reduced-order problem are given in [1], [2]...|$|R
40|$|A {{comparison}} of self- and clinician-collected vaginal specimens for {{the diagnosis of}} trichomoniasis was conducted. <b>The</b> <b>sensitivities</b> of culture methods using self- and clinician-collected specimens were 84. 6 and 88. 5 %, respectively. There {{was no significant difference}} between <b>the</b> <b>sensitivities</b> of culture methods using self- and clinician-collected vaginal specimens for the diagnosis of trichomoniasis...|$|R
40|$|This {{paper is}} {{concerned}} with <b>the</b> <b>sensitivities</b> of function space oriented interior point approximations in parameter dependent optimization problems. For an abstract setting that covers control constrained optimal control problems, the convergence of interior point <b>sensitivities</b> to <b>the</b> <b>sensitivities</b> of <b>the</b> optimal solution is shown. Error bounds for Lq norms are derived and illustrated with numerical examples...|$|R
5|$|The Court of Auditors {{was set up}} in 1975. It {{was created}} as an {{independent}} institution due to <b>the</b> <b>sensitivity</b> of the issue of fraud in the Union (the anti-fraud agency, OLAF, is also built on its independence). It is composed of one member from each state appointed by the Council every six years. Every three years one of them is elected {{as the president of the}} court, who is currently Vítor Manuel da Silva Caldeira.|$|E
5|$|The {{technique}} used to analyse the BFO values was validated against 87 aircraft {{with the same}} SATCOM equipment operating in the region {{around the time of}} Flight 370's disappearance and against 9 previous flights operated by the same aircraft (9M-MRO). <b>The</b> <b>sensitivity</b> to error was calculated during the early phase of Flight 370 when the aircraft's location, track, and ground speed were known. This resulted in an uncertainty of ±28° heading and ±9° of latitude.|$|E
5|$|Zinc oxide nanorod sensors are devices {{detecting}} {{changes in}} electric current passing through zinc oxide nanowires due to adsorption of gas molecules. Selectivity to hydrogen gas {{was achieved by}} sputtering Pd clusters on the nanorod surface. The addition of Pd appears {{to be effective in}} the catalytic dissociation of hydrogen molecules into atomic hydrogen, increasing <b>the</b> <b>sensitivity</b> of the sensor device. The sensor detects hydrogen concentrations down to 10 parts per million at room temperature, whereas there is no response to oxygen.|$|E
5000|$|<b>The</b> <b>Sensitivities</b> Method {{involves}} first calculating option <b>sensitivities</b> {{known as}} <b>the</b> Greeks {{because of the}} common practice of representing <b>the</b> <b>sensitivities</b> using Greek letters. For example, the delta of an option is the value an option changes due to a $1 move in the underlying commodity or equity/stock. To calculate 'Impact of Prices' the formula is ...|$|R
40|$|In {{the context}} of {{gradient-based}} optimization techniques for multidisciplinary problems an efficient approach was sought to evaluate the gradient of the cost function {{with respect to the}} design variables; also called <b>the</b> <b>sensitivities.</b> <b>The</b> traditional approach to calculate <b>the</b> <b>sensitivities,</b> <b>the</b> finite differences, can become prohibitively expensive in high-fidelity optimizations. For this reason an existing adjoint approach was suggested to be further developed in order to suit coupled aero-structural systems. Then the developed approach was evaluated and tested. The results showed that the approach can provide accurate sensitivities in a very efficient way...|$|R
40|$|AbstractA {{discrete}} semianalytical {{sensitivity analysis}} procedure {{has been developed}} for calculating aerodynamic design <b>sensitivities.</b> <b>The</b> <b>sensitivities</b> are numerically calculated using direct differentiation of the discretized flow equations. A new approach has been developed and employed to calculate <b>the</b> <b>sensitivities</b> of <b>the</b> discretized grid, which are integral to the calculation of <b>the</b> aerodynamic <b>sensitivities.</b> Representative results from <b>the</b> grid <b>sensitivity</b> analysis and semianalytical sensitivity analysis procedures are compared with those obtained from the finite difference approach to establish their efficiency and accuracy. The developed procedures offer significant savings in computing time over the finite difference approach, thus allowing the use of comprehensive analysis procedures in design optimization...|$|R
25|$|In these {{thermocouples}} (chromel–gold/iron alloy), {{the negative}} wire is gold {{with a small}} fraction (0.03–0.15 atom percent) of iron. The impure gold wire gives the thermocouple a high sensitivity at low temperatures (compared to other thermocouples at that temperature), whereas the chromel wire maintains <b>the</b> <b>sensitivity</b> near room temperature. It {{can be used for}} cryogenic applications (1.2–300 K and even up to 600 K). Both <b>the</b> <b>sensitivity</b> and the temperature range depend on the iron concentration. <b>The</b> <b>sensitivity</b> is typically around 15 µV/K at low temperatures, and the lowest usable temperature varies between 1.2 and 4.2 K.|$|E
25|$|The {{following}} table list <b>the</b> <b>sensitivity</b> {{of different}} types of ANAs for different diseases.|$|E
25|$|A {{systematic}} review of CT diagnosis found that <b>the</b> <b>sensitivity</b> was 68 percent (95% CI 55-80%) and specificity was 93 percent (95% CI 89-96%) compared with pathologic examination of an explanted or resected liver as the reference standard. With triple-phase helical CT, <b>the</b> <b>sensitivity</b> 90% or higher, but this data {{has not been}} confirmed with autopsy studies.|$|E
40|$|This paper {{describes}} the optimization of batch {{processes in the}} presence of uncertainty and constraints. The optimal solution consists of keeping certain path and terminal constraints active and driving <b>the</b> <b>sensitivities</b> to zero. <b>The</b> case where the terminal constraints have a larger bearing on the cost than <b>the</b> <b>sensitivities</b> is considered, for which a two-time-scale methodology is proposed. The problem of meeting the active terminal constraints is addressed on-line using trajectory tracking, whilst pushing <b>the</b> <b>sensitivities</b> to zero is implemented on a run-to-run basis. The paper also discusses the run-to-run improvement of trajectory tracking via iterative learning control. The proposed methodology is illustrated in simulation on a batch distillation system...|$|R
3000|$|... - {{we run the}} {{existing}} RANS adjoint code to obtain <b>the</b> <b>sensitivities.</b> A validation study {{similar to the one}} above for the XL 1 revealed that we can only expect qualitative accuracy from this procedure. Quantitatively, <b>the</b> <b>sensitivities</b> are not correct. Still, the following comparison will demonstrate that these approximate DES sensitivities are useful and actually have an added value against pure RANS sensitivities.|$|R
40|$|Optimisation methods usually require {{efficient}} algorithms {{to compute}} <b>the</b> <b>sensitivities</b> of <b>the</b> simulation results {{with respect to}} design parameters. Compared to finite difference schemes, the direct differentiation technique that is considered in this talk leads to {{a significant reduction in}} the computational cost of <b>the</b> <b>sensitivities.</b> Our personal contribution is related with the treatment of large rotations, which arise for instance in multibody systems. Several time integrators are developed in order to compute <b>the</b> <b>sensitivities</b> together with <b>the</b> original solution in a single but extended simulation. In particular, three formulations of the generalized-alpha method are discussed and compared for a simple benchmark : a residual form, a linear form, and a geometric form...|$|R
25|$|<b>The</b> <b>sensitivity</b> of {{headphones}} {{is usually}} between about 80 and 125dB/mW and usually measured at 1kHz.|$|E
25|$|There {{are many}} ways to {{demonstrate}} bacteriocin production, depending on <b>the</b> <b>sensitivity</b> and labor intensiveness desired.|$|E
25|$|The guard {{interval}} also {{eliminates the}} need for a pulse-shaping filter, and it reduces <b>the</b> <b>sensitivity</b> to time synchronization problems.|$|E
40|$|The {{context of}} this paper is the use of process {{measurements}} to optimize batch processes in the presence of uncertainty. The optimal solution consists of (i) keeping certain path and terminal constraints active and (ii) driving <b>the</b> <b>sensitivities</b> to zero. In particular, the problem of meeting the active terminal constraints in each run is considered here, which is important when these constraints have a larger bearing on the cost than <b>the</b> <b>sensitivities.</b> A two- time-scale methodology is proposed, whereby the task of meeting the active terminal constraints is addressed on-line using trajectory following, while pushing <b>the</b> <b>sensitivities</b> to zero is implemented on a run-to-run basis. The proposed methodology is illustrated via the simulation of a batch distillation syste...|$|R
3000|$|... s)′ explicitly. However, it {{is always}} {{possible}} to compute <b>the</b> <b>sensitivities</b> of all <b>the</b> fluctuation fields, u [...]...|$|R
30|$|Another {{option is}} {{proposed}} on Fig. 12 (b), where <b>the</b> peak <b>sensitivities</b> {{have been chosen}} according to <b>the</b> optimized <b>sensitivities</b> proposed by Parmar et al. [49]. We observe that <b>the</b> <b>sensitivities</b> proposed in this last case is more efficient. Index of quality between two filter banks, such as in Figs. 12 (a) and (b), may be to choose the best sensitive option coupled with the best results in resulting color image.|$|R
25|$|Due to <b>the</b> <b>sensitivity</b> to the {{refractive}} {{index of the}} media, diffraction grating {{can be used as}} sensor of fluid properties.|$|E
25|$|Due to <b>the</b> <b>sensitivity</b> of both Banksia {{species to}} Phytophthora cinnamomi dieback, other less lethal weed killers are used on Mount Henry Peninsula.|$|E
25|$|<b>The</b> <b>sensitivity</b> of a bond's {{market price}} to {{interest}} rate (i.e. yield) movements {{is measured by}} its duration, and, additionally, by its convexity.|$|E
40|$|Abslracf-For {{a general}} linear time-invariant network it is {{shown that the}} sum of <b>the</b> <b>sensitivities,</b> of any order, of a network {{function}} over different parameter sets is invariant. An expression is derived for calculating the sum of (Kfl) th-order <b>sensitivities</b> knowing <b>the</b> same for kth-order sensitivities. It is also shown that lower bounds for <b>the</b> quadratic <b>sensitivity</b> index may be obtained by using <b>the</b> i&t-order <b>sensitivity</b> invariants. I...|$|R
40|$|Radiative {{heating and}} cooling provide primary source and {{ultimate}} sink of energy driving lower planetary atmospheres. Evaluating <b>the</b> <b>sensitivities</b> of atmospheric dynamics models on these primary atmospheric parameters requires knowing how {{heating and cooling}} rates depend on these same parameters. We discuss two approaches that {{make it possible to}} directly compute <b>the</b> <b>sensitivities</b> of heating and cooling rates in parallel with evaluation of heating and cooling rates themselves...|$|R
40|$|Abstract:- The paper proposes an {{original}} method for determination of <b>the</b> <b>sensitivities</b> for two-ports networks in steady state nonsinusoidal regime. It is presented a computation algorithm for determination <b>the</b> <b>sensitivities</b> using <b>the</b> relative values which characterize {{the current and}} voltage harmonics, without knowing the circuit structure. The given example {{is necessary for the}} discussions of some aspects related the two-ports networks applications. Key words:- sensitivities, two-ports, relative values, harmonics. 1...|$|R
