23|10000|Public
50|$|In {{variance}} analysis, {{direct material}} usage (efficiency, quantity) variance {{is the difference}} between the standard quantity of materials that should have been used for the number of units actually produced, and the actual quantity of materials used, valued at the standard cost per <b>unit</b> <b>of</b> <b>material.</b> It is one of the two components (the other is direct material price variance) of direct material total variance.|$|E
50|$|For example, {{the concept}} is useful {{in the flow of}} liquids through {{permeable}} media, especially in hydrology in relation to river and lake bottoms. In this case, it is an application of intrinsic permeability to a <b>unit</b> <b>of</b> <b>material</b> with a defined area and thickness, and the magnitude of conductance affects the rate of groundwater recharge or interaction with groundwater. This parameter is often used in such computer modelling codes as MODFLOW.|$|E
50|$|In the European Union between 2000 and 2007, {{resource}} productivity increased by almost eight percent. Resource {{productivity of the}} EU is expressed {{by the amount of}} gross domestic product (GDP) generated per <b>unit</b> <b>of</b> <b>material</b> consumed (Domestic Material Consumption, see below), in other words GDP / DMC in euro per kg. This means that less material was consumed in order to produce the same amount of products in the EU. However, breaking down the components of the index it is seen that both GDP and DMC are increasing, only not equally fast.|$|E
50|$|During {{fiscal year}} 2007-08, the library {{district}} welcomed more than 3 million customers and loaned more than 5 million <b>units</b> <b>of</b> <b>materials.</b>|$|R
50|$|DOVE International has {{published}} 500,000 <b>units</b> <b>of</b> <b>materials</b> in over 70 publications on topics concerning churches, leadership and Christian life. The publishing arm has produced materials used by churches and organizations. One such ministry training organization is Christian Leaders Institute, which uses DOVE International's materials on House Churches.|$|R
25|$|The {{dimension}} of life refers to organisms and their behaviors through time. Living objects {{are considered a}} unique subset <b>of</b> <b>material</b> objects. Just as quantum particles form the fundamental <b>units</b> <b>of</b> <b>material</b> complexity, genes are the fundamental <b>units</b> <b>of</b> living information. Although many questions about the emergence of life remain unanswered, in accordance with modern biology, the ToK posits that natural selection operating on genetic combinations through time is the unified theory of biology and forms the foundational understanding {{for the emergence of}} organic complexity.|$|R
5000|$|In the {{analysis}} given here, {{there is an}} inconsistency compared to typical wind turbine non-dimensionalization. As stated in the preceding section, the A (area) in the [...] non-dimensionalization {{is not always the}} same as the A in the force equations (...) and (...) [...] Typically for [...] the A is the area swept by the rotor blade in its motion. For [...] and [...] A is the area of the turbine wing section. For drag based machines, these two areas are almost identical so there is little difference. To make the lift based results comparable to the drag results, the area of the wing section was used to non-dimensionalize power. The results here could be interpreted as power per <b>unit</b> <b>of</b> <b>material.</b> Given that the material represents the cost (wind is free), this is a better variable for comparison.|$|E
50|$|Conveyors {{are used}} when {{material}} {{is to be}} moved frequently between specific points over a fixed path and {{when there is a}} sufficient flow volume to justify the fixed conveyor investment. Different types of conveyors can be characterized by the type of product being handled: unit load or bulk load; the conveyor’s location: in-floor, on-floor, or overhead, and whether or not loads can accumulate on the conveyor. Accumulation allows intermittent movement of each <b>unit</b> <b>of</b> <b>material</b> transported along the conveyor, while all units move simultaneously on conveyors without accumulation capability. For example, while both the roller and flat-belt are unit-load on-floor conveyors, the roller provides accumulation capability while the flat-belt does not; similarly, both the power-and-free and trolley are unit-load overhead conveyors, with the power-and-free designed to include an extra track in order to provide the accumulation capability lacking in the trolley conveyor. Examples of bulk-handling conveyors include the magnetic-belt, troughed-belt, bucket, and screw conveyors. A sortation conveyor system is used for merging, identifying, inducting, and separating products to be conveyed to specific destinations, and typically consists of flat-belt, roller, and chute conveyor segments together with various moveable arms and/or pop-up wheels and chains that deflect, push, or pull products to different destinations.|$|E
50|$|The player {{produces}} the drugs using {{an assembly line}} approach with various equipment that can modify the concentration of the material, combine materials, rearrange {{the effects of a}} material to determine how effects combine when mixed, analyze materials to determine maximum potency levels, and finally prepare the material in pill form for delivery. This is done on an isometric view of building plant floorplan, with various ports along the edges {{that can be used to}} bring in materials or ship out completed drugs. Materials are transported via conveyor belts between the processing units. Added building space can be purchased with in-game funds. The player can click on processes or materials to evaluate their current state, thus giving them the ability to debug the production line. Once the player has produced a complete pill from specific materials for the first time and delivered it to an output port, they are given the opportunity to name the product. This product is then sold on the game's virtual market. The produce is rated on a letter-grade based on the effectiveness and lack of side-effects as well as current market demand. The production lines operate in real-time - in that while the player can pause the game to arrange equipment within a production line, the game while running tracks the movement of each <b>unit</b> <b>of</b> <b>material</b> through the production line and only considered each unit as a product when it reaches the end of the production line.|$|E
3000|$|... <b>units</b> <b>of</b> raw <b>material</b> or {{intermediate}} product f {{required for the}} production <b>of</b> one <b>unit</b> <b>of</b> product g in plant locations of the SC stage σ; [...]...|$|R
3000|$|... {{cash outflow}} {{resulting}} from the procurement <b>of</b> one <b>unit</b> <b>of</b> raw <b>material</b> g from supplier location s during time period t; [...]...|$|R
50|$|In 1894 Orbeliani {{published}} the full collection of poems written by her father, {{who had died}} four years earlier Orbeliani was {{an active participant in}} the movement to establish the Tbilisi State University (TSU) in 1918. The Georgian National Center of Manuscripts maintains an archive dedicated to Orberliani, which contains 1123 <b>units</b> <b>of</b> <b>material</b> concerning her biography and social activities, creative works and correspondence.|$|R
40|$|The {{purpose of}} this study was to provide {{quantitative}} data about the effectiveness of the traditional lecture method of teaching in a college science course in contrast with an interactive case study method of teaching and learning. The study investigated one professor’s teaching an Advanced Human Anatomy and Physiology course at Nebraska Wesleyan University. One <b>unit</b> <b>of</b> <b>material</b> was taught using the traditional didactic lecture method whereby students were passive participants in the classroom with the instructor delivering content using PowerPoint presentations and students taking notes. The second <b>unit</b> <b>of</b> <b>material</b> was taught using a 20 -minute lecture followed by a case study entitled Osteoporosis from the National Center for Case Study Teaching in Science (NCCSTS) catalog of cases. Results showed no difference in students’ exam performance between the two teaching methods. In addition, there was no statistical difference in retention of information four months following the first exam. With regards to students’ perceived effectiveness of teaching methods, they showed a slight preference for didactic lecture as a teaching method as compared to the use of a case study method. ...|$|E
40|$|A {{survey of}} {{dominant}} theological {{themes of the}} Old Testament. Special attention {{will be given to}} basic Old Testament exegetical and hermeneutical principles with a goal of utilizing them in the pulpit. OBJECTIVES Upon the successful completion of this course the student should be able to: 1. Understand hermeneutical and exegetical concerns related to differing Old Testament genres. 2. Be able to identify a logical <b>unit</b> <b>of</b> <b>material</b> in Old Testament narrative. 3. Construct an expository sermon from legal material in the Old Testament. 4. Construct an expository sermon from Psalms. 5. Construct an expository sermon from wisdom literature. 6. Utilize various expository techniques in presenting Old Testament themes. 7. Recognize dominant theological themes in the Old Testament. 8. Preach dominant theological themes in the Old Testament...|$|E
40|$|An {{experiment}} compared three {{methods of}} instruction in an introductory course in psychology. The first method utilized groups of three students and required that all three students meet the criterion on each <b>unit</b> <b>of</b> <b>material</b> in the course before being allowed to continue on to other units. This system also required that students do all remediation for {{other members of the}} groups, giving examinations, scoring examinations, and reporting examination scores to proctors. This group vas compared with the standard Keller type course taught during the same quarter and a third lecture course also taught the same quarter. Performance was measured by final examination score and total points accumulated in the course for all three groups. Results indicate that the group and the Keller group did not differ on performance measures but both groups performed better than the lecture group and rated the course more favorably. (Author) a 4 r) 0...|$|E
5000|$|Refrigerating <b>unit</b> <b>of</b> fired ceramic <b>material.</b> No. 1,781,778; November 18 ...|$|R
50|$|In {{order to}} ensure {{the success of the}} plan it was {{necessary}} to ensure that inputs from one part of the economy matched outputs from another part of the economy. Gosplan achieved this using a methodology called the system of 'material balances'. For a plan period (in detail for one year and in lesser detail for a five-year plan) Gosplan drew up a balance sheet in terms <b>of</b> <b>units</b> <b>of</b> <b>material</b> (i.e. money was not used as part of the accounting process).|$|R
50|$|Hence, by {{designing}} the individual, geometrically shaped <b>unit</b> <b>of</b> the <b>material,</b> called a cell, {{as the right}} kind of composite, it becomes a material with macroscopic properties that do not occur in nature.|$|R
40|$|Many {{institutions}} {{are beginning to}} offer courses and, in some cases, entire degree programs using electronic learning technologies. Instructors, accustomed to the traditional classroom, struggle to understand the new technology and the new pedagogy required in the “virtual classroom. ” To be successful in this new environment, it {{is not sufficient to}} put lecture notes and some assignments on the Web for students to access. The instructor must convert each <b>unit</b> <b>of</b> <b>material</b> into a variety of activities that help the student achieve the learning objectives. Assessment of student learning must also be adjusted to reflect the online environment. This paper describes the various learning activities and assessments that comprise an online Computer Information Systems (CIS) course currently offered at our institution. The course, Introduction to Information Technology, provides a broad coverage of topics such as hardware, software, applications, networking, etc. We present the components of the online course, along with observations based o...|$|E
40|$|In {{this paper}} we study models of {{cooperation}} between the nodes of a network that represents a distribution problem. The distribution problem we propose arises when, over a graph, a group of nodes offers certain commodity, some other nodes require it and a third group of nodes neither need this material nor offer it but they are strategically relevant to the distribution plan. The delivery of one <b>unit</b> <b>of</b> <b>material</b> to a demand node generates a fixed profit, and the shipping of the material through the arcs has an associated cost. We show that in such a framework cooperation is beneficial for the different parties. We prove that the cooperative situation arising from this distribution problem is totally balanced by finding a set of stable allocations (in the core of an associated cooperative game). In order to overcome certain fairness problems of these solutions, we introduce two new solution concepts and study their properties. OR in strategic planning Game theory Supply chain management...|$|E
40|$|Abstract: The {{objective}} of the paper is to provide {{an understanding of the}} South African concrete industry’s environmental burden in terms of natural resource consumption and carbon dioxide equivalent emissions (CO 2 -e). The review covers current practices in the concrete construction field in South Africa (SA) and their implications for the environment. Elaboration in terms of detail and quantification is given for the environmental burden generated during the manufacture of raw materials for concrete and their transportation to site. Four-year average (2005 – 2008) data is provided for resources consumed and wastes emitted during the quarrying and manufacture of raw materials for concrete. Carbon dioxide-equivalent emissions data per <b>unit</b> <b>of</b> <b>material</b> produced was obtained from the InEnergy Report produced for the Cement and Concrete Institute (C&CI) of South Africa. The study determined that, on average, 39. 7 Mt of raw materials are consumed per year and 4. 92 x 109 kg CO 2 -e emissions are emitted per year to produce cement and aggregates for concrete production in South Africa...|$|E
40|$|The {{purpose of}} this project was: 1. [...] . to develop a <b>unit</b> <b>of</b> {{instructional}} <b>materials</b> related to environmental education. 2. [...] . to construct or select activities that are especially appropriate for junior high school-age students. 3. [...] . to include a variety of learning experiences in the program, including laboratory exercises and outdoor activities which could provide students with first-hand experiences in issues related to their environment. 4. [...] . to employ {{a wide range of}} instructional media such as motion pictures, filmstrips, cassette tapes, and other audio-visual instructional aids. 5. [...] . to implement the program as a six-week course of study. The activities developed in this project were designed to be used by an eighth grade class of students enrolled in the Westby (Wisconsin) Area School District. The <b>unit</b> <b>of</b> <b>materials</b> contains 27 individual learning activities and involves a six-week period of instruction. The program focuses on issues related to environmental deterioration. Air, land, and water pollution problems are the major topics of concern...|$|R
5000|$|... #Subtitle level 4: ISO Technical Committee 51: Pallets for <b>unit</b> load method <b>of</b> <b>materials</b> {{handling}} ...|$|R
40|$|In the paper, {{experimental}} and numerical investigations of thin-walled beams with double-box flanges were presented. They were {{a continuation of}} researches conducted at the <b>Unit</b> <b>of</b> Strength <b>of</b> <b>Materials</b> and Structures at Poznan University of Technology. Numerical results obtained with the Finite Strip Method (FSM) were compared with experimental ones and used for validation of analytical solutions. Key words: thin-walled beams, FSM, experimental investigations 1...|$|R
40|$|This study {{aimed to}} develop an {{interactive}} vocabulary learning multimedia for the seventh grade students of SMP N 15 Yogyakarta. This study was a Research and Development study. The research procedure {{in this study was}} adapted from the model proposed by Lee and Owens (2004). It consists of several steps which are analysis, design, development, evaluation, and implementation. The result of this study is an interactive vocabulary learning multimedia which consists of three units of material namely “I Love Things Around Me”, “I Love People Around Me”, and “I Love My Town”. Each <b>unit</b> <b>of</b> <b>material</b> consists of input, drills and evaluation part. Based on the result of the expert judgment and the product try-out, the interactive multimedia designed are appropriate to be used. The mean scores of the content appropriateness and media appropriateness of the interactive multimedia in Unit 1, Unit 2, and Unit 3 were all in the range of > 4. 2 – 5. Based on the quantitative data conversion proposed by Sudijono (2003) the mean score in the range of > 4. 20 – 5 was categorized as very goo...|$|E
40|$|Measures of eco-efficiencyâ??broadly {{understood}} as "getting more from less"â??often include {{an economic and}} an environmental variable. The latter is often seen as the more problematic variable, particularly when used in relation to impacts of public concern. But an analysis of resource and value trends in the U. K. steel and aluminum industries over the last 30 yr showed that there are significant problems associated with using economic variables in measures of eco-efficiency at the sectoral level. The research found that the U. K. steel and aluminum industries have improved the effectiveness with which they use natural resources, but {{that this has been}} accompanied by a decline in the economic output (value added) per <b>unit</b> <b>of</b> <b>material</b> or energy consumed. These seemingly contradictory results {{can be explained by the}} fall in the price of metals in real terms, and by the competitive pressures that necessitate the cutting of production costs and indirectly lead to a fall in the measure of economic output of the relevant industry. The research also suggests a logical terminology to bring consistency and coherence to the broad field of eco-efficiency indicators, with an important distinction made between measures that examine the value output per unit of physical input, and measures that examine the physical output per unit of physical input. Both these types of indicators are important, as they highlight different aspects of eco-efficiency. ...|$|E
40|$|Air {{pollution}} and fossil fuel reserves exhaustion are increasing {{the importance of}} the biomass-derived products, in particular wood, as source of clean and renewable energy for the production of electricity or steam. In order to improve the global efficiency and the entire production chain, we have to evaluate the energetic aspects linked to the process of transformation, handling and transport of these materials. This paper reports results on a comparison between two chippers of similar size using different cutting technology: disc and drum tool respectively. During trials, fuel consumption, PTO torque and speed, processing time and weight of processed material were recorded. Power demand, fuel consumption, specific energy and productivity were computed. The machine was fed with four different feedstock types (chestnut logs, poplar logs, poplar branches, poplar sawmill residues). 15 repetitions for each combination of feedstock-tool were carried out. The results of this study show that the disc tool requires, depending on the processed material, from 12 to 18 % less fuel per <b>unit</b> <b>of</b> <b>material</b> processed than the drum tool, and consequently, from 12 to 16 % less specific energy. In particular, the highest difference between tools was found in branches processing whereas the smallest was in poplar logs. Furthermore the results of the investigation indicate, that, in testing conditions, the productivity of drum tool is higher (8 %) than disc tool...|$|E
50|$|Process {{manufacturing}} is {{the branch}} of manufacturing {{that is associated with}} formulas and manufacturing recipes, and can be contrasted with discrete manufacturing, which is concerned with discrete <b>units,</b> bills <b>of</b> <b>materials</b> and the assembly of components.|$|R
30|$|Lastly, a {{displacement}} factor was calculated {{to quantify the}} amount of emission reduction achieved per <b>unit</b> <b>of</b> wood <b>material</b> use [30], {{expressed in terms of}} t CO 2 eq emission reduction per t of oven-dry wood product.|$|R
5000|$|Metrics (“for every given <b>unit</b> <b>of</b> archival {{collection}} <b>materials,</b> arrangement, description, {{and conservation}} work should all {{occur at the}} same hierarchical level”) ...|$|R
40|$|A typical verbal-learning trial {{consists}} of two distinct phases, presentation of the ma-terial and attempted recall, or input and out-put. While many different patterns of input and output sequences can be and {{have been used in}} experiments, the two phases are neces-sarily separated in time. A reasonably small <b>unit</b> <b>of</b> <b>material,</b> such as an individual item, can practically always be recalled immediately after its presentation (Murdock, 1961 a, b; Peterson, Saltzman, Hillner, and Land, 1962). In this sense the item is always "learned" when it is presented. If it cannot be recalled following a retention interval, however short, it must have been "forgotten " during that interval. This paper is concerned with intratrial forgetting of individual list items, i. e., with forgetting as it occurs within a single learn-ing trial. Intratrial retention intervals of in-dividual items are filled with inputs and out-puts of other items. These two kinds of inter-vening activities can be regarded as two sources of intratrial interference responsible for forgetting of the critical item. If a list of, say, ten items A, B, C, [...] ., I, J, is presented to S in this order and at a fixed rate, and S is then asked to recall these items in the same order and at the same rate, the length of the intratrial retention interval is identical for all items, but the particular combination of intervening inputs and out-puts varies for items in different serial posi...|$|E
40|$|The mine {{planning}} process converts resources into economically mineable reserves, focusing on value addition and risk reduction. Equipment selection is traditionally addressed {{late in the}} process and addresses production capacity, equipment matching and equipment allocation. The primary focus being to reduce the operating cost per <b>unit</b> <b>of</b> <b>material</b> handled. Mineral resource management is an integration of the key functions in the mining process. A focus on resource utilisation {{plays a key role in}} the management process and leads to the question whether lower operating costs always add value in the long term. It was determined that traditional equipment selection methods are not effective for all mineral deposits and might even be short sighted, destroying value over the long term. The mine {{planning process}} was adapted to allow for an early investigation into the potential for increased recovery. The effect of selectivity in the loading action is simulated in a 3 D environment over a range of bench heights. The results are analysed with a grade tonnage curve and the saleable product at each bench height is calculated, taking account of the required product qualities. The concept of financial materiality is applied to classify the resource as either a massive or selective deposit. A massive deposit support the traditional drive for bigger equipment and will benefit from lower operating costs. A selective deposit requires less focus on production capacity, equipment matching and allocation and more on resource recovery. In order to take advantage of the potential indicated in the evaluation, it is necessary to modify the traditional equipment selection techniques. A thorough understanding of the capabilities of the loading equipment is required in an attempt to match these abilities with the geometry of the ore deposit. The objective is to identify the equipment that will ensure the highest mining recovery at the lowest cost. This will be achieved when the loading equipment can attain a mining recovery smaller than the bench height it is mining or if the equipment can be applied economically on small bench heights. The most suitable equipment can only be determined at the hand of a total value chain costing analyses. This means that the production cost i. e. the cost to produce the final product must be evaluated and not the operating cost i. e. the cost to move a <b>unit</b> <b>of</b> <b>material,</b> as is often the case. The proposed mine planning approach and equipment selection technique was used on the Thabazimbi iron ore mine deposits. The results indicated that the NPV of the project could be increased dramatically. It was concluded that the ability to load selectively cannot be calculated mathematically. It is a judgment made on a thorough evaluation of the design and operating features of the shovel in conjunction with the ore body geometric parameters and the loading face conditions. The efficiency of the selected shovel can be manipulated through the application of different bench heights, and the optimum combination can only be determined through a total value chain costing analyses. Dissertation (MEng (Mining Engineering)) [...] University of Pretoria, 2005. Mining Engineeringunrestricte...|$|E
40|$|Within {{the forest}} sector, the {{sustainability}} concept {{has evolved from}} a narrow focus on sustainable wood production to a much broader evaluation of environmental, social, and economic sustainability for whole value chains. A new software tool – ToSIA – has been developed for assessing sustainability impacts of Forest-Wood-Chains (FWCs). In the approach, FWCs are defined as chains of production processes (e. g. harvesting–transport–industrial processing), which are linked with products (e. g. a timber frame house). Sustainability is determined by analysing environmental, economic, and social sustainability indicators for all the production processes along the FWC. The tool calculates sustainability values as products of the relative indicator values (i. e. indicator value expressed per <b>unit</b> <b>of</b> <b>material</b> flow) multiplied with the material flow entering the process. Calculated sustainability values are then aggregated for the segments of the FWC or for the complete chain. The sustainability impact assessment requires carefully specified system boundaries. ToSIA uses a data-oriented approach that is very flexible in {{the focus of the}} analysis and the selection of indicators of sustainability. An example of alternative Norway spruce management systems in Southern Germany and their effects on six sustainability indicators is presented. The less intensive management system with natural regeneration and motor–manual harvesting shows higher carbon storage and slightly less energy use. It creates more employment and higher labour costs, but the average rate of accidents is also higher. ToSIA offers a transparent and consistent methodological framework to assess sustainability impacts in the forest-based sector as affected, e. g. by changes in policies, market conditions, or technology. The paper discusses strengths and limitations of the approach and provides an outlook on further development perspectives of the methodology...|$|E
40|$|The {{objective}} {{of this research was}} to develop appropriate English learning materials for the students of Beauty Study Program. This research and development study adapted the R&D model proposed by Dick and Carey in Borg, Gall and Gall (2003). The steps of the research were conducting needs analysis, developing syllabus, developing the first draft <b>of</b> <b>materials,</b> materials evaluation and writing the final draft <b>of</b> <b>materials.</b> The instruments to collect data were needs analysis questionnaire and expert judgment questionnaire in the form of Likert scale. The data obtained from the needs analysis and the expert judgment were analyzed quantitatively through descriptive statistics. This research developed three <b>units</b> <b>of</b> <b>materials.</b> Based on the findings from the expert judgment, the materials are categorized appropriate. The mean score of all aspects of the three developed units is 3. 12 which can be categorized as “Good”...|$|R